Circuit: * C:\Users\vtolentino\Documents\test\Kicad\Projects\FM_Disturber\01-Simulation\01-biasing_2N3904.asc

.step i1=2e-006
.step i1=2.1e-006
.step i1=2.2e-006
.step i1=2.3e-006
.step i1=2.4e-006
.step i1=2.5e-006
.step i1=2.6e-006
.step i1=2.7e-006
.step i1=2.8e-006
.step i1=2.9e-006
.step i1=3e-006
.step i1=3.1e-006
.step i1=3.2e-006
.step i1=3.3e-006
.step i1=3.4e-006
.step i1=3.5e-006
.step i1=3.6e-006
.step i1=3.7e-006
.step i1=3.8e-006
.step i1=3.9e-006
.step i1=4e-006
.step i1=4.1e-006
.step i1=4.2e-006
.step i1=4.3e-006
.step i1=4.4e-006
.step i1=4.5e-006
.step i1=4.6e-006
.step i1=4.7e-006
.step i1=4.8e-006
.step i1=4.9e-006
.step i1=5e-006

Date: Thu Oct 25 16:18:42 2018
Total elapsed time: 0.141 seconds.

tnom = 27
temp = 27
method = trap
totiter = 18910
traniter = 0
tranpoints = 0
accept = 0
rejected = 0
matrix size = 6
fillins = 0
solver = Normal
Matrix Compiler1:      20 opcodes  0.1/[0.1]/0.1
Matrix Compiler2:      37 opcodes  0.1/[0.1]/0.1

