Circuit: * C:\Users\vtolentino\Documents\test\Kicad\Projects\FM_Disturber\01-Simulation\02-Common_self-biasing_tapped-inductor.asc

Direct Newton iteration for .op point succeeded.
.step c_tank=0
.step c_tank=1e-011
.step c_tank=2e-011
.step c_tank=3e-011
.step c_tank=4e-011
.step c_tank=5e-011
.step c_tank=6e-011
.step c_tank=7e-011
.step c_tank=8e-011
.step c_tank=9e-011
.step c_tank=1e-010

Date: Fri Oct 19 10:14:02 2018
Total elapsed time: 8.344 seconds.

tnom = 27
temp = 27
method = modified trap
totiter = 51251
traniter = 51244
tranpoints = 19487
accept = 13491
rejected = 5996
matrix size = 10
fillins = 4
solver = Normal
Matrix Compiler1: 818 bytes object code size  0.1/0.1/[0.0]
Matrix Compiler2: 890 bytes object code size  0.1/0.1/[0.0]

