Circuit: * C:\Users\vtolentino\Documents\test\Kicad\Projects\FM_Disturber\01-Simulation\02-Common_self-biasing_mosfet.asc

WARNING: Node AC_OUT is floating.

Direct Newton iteration for .op point succeeded.

Date: Mon Oct 22 09:01:50 2018
Total elapsed time: 0.051 seconds.

tnom = 27
temp = 27
method = modified trap
totiter = 12856
traniter = 12849
tranpoints = 4614
accept = 3267
rejected = 1347
matrix size = 10
fillins = 4
solver = Normal
Matrix Compiler1: 818 bytes object code size  0.2/0.1/[0.1]
Matrix Compiler2: off  [0.1]/0.1/0.1

