Circuit: * C:\Users\vtolentino\Documents\test\Kicad\Projects\FM_Disturber\01-Simulation\02-Common_self-biasing.asc

WARNING: Node AC_OUT is floating.

Direct Newton iteration for .op point succeeded.
.step cc_out=1e-011
.step cc_out=2e-011
.step cc_out=3e-011
.step cc_out=4e-011
.step cc_out=5e-011
.step cc_out=6e-011
.step cc_out=7e-011
.step cc_out=8e-011
.step cc_out=9e-011
.step cc_out=1e-010

Date: Thu Oct 18 13:26:55 2018
Total elapsed time: 0.800 seconds.

tnom = 27
temp = 27
method = modified trap
totiter = 11678
traniter = 11671
tranpoints = 3908
accept = 2817
rejected = 1091
matrix size = 10
fillins = 4
solver = Normal
Matrix Compiler1: 818 bytes object code size  0.2/0.1/[0.0]
Matrix Compiler2: 890 bytes object code size  0.1/0.1/[0.1]

