Circuit: * C:\Users\vtolentino\Documents\test\Kicad\Projects\FM_Disturber\01-Simulation\02-Common_self-biasing_mosfet.asc

WARNING: Node AC_OUT is floating.

Direct Newton iteration for .op point succeeded.

Date: Fri Oct 19 12:58:39 2018
Total elapsed time: 0.047 seconds.

tnom = 27
temp = 27
method = modified trap
totiter = 11764
traniter = 11757
tranpoints = 4315
accept = 3062
rejected = 1253
matrix size = 10
fillins = 4
solver = Normal
Matrix Compiler1: 818 bytes object code size  0.1/0.1/[0.1]
Matrix Compiler2: 890 bytes object code size  0.1/0.1/[0.0]

