Circuit: * C:\Users\vtolenti89\Documents\Projects\Kicad\Projects\CameraSystem\Simulations\bc546_pull-down.asc

Direct Newton iteration for .op point succeeded.

Date: Sat Oct 06 15:56:26 2018
Total elapsed time: 0.078 seconds.

tnom = 27
temp = 27
method = modified trap
totiter = 2410
traniter = 2404
tranpoints = 1143
accept = 1108
rejected = 35
matrix size = 9
fillins = 0
solver = Normal
Matrix Compiler1: 456 bytes object code size  0.4/0.2/[0.2]
Matrix Compiler2: off  [0.1]/0.3/0.1

