Circuit: * C:\Users\vtolentino\Documents\test\Kicad\Projects\CameraSystem\Simulations\Draft3.asc

.OP point found by inspection.
.step ramp=0.01
.step ramp=0.012
.step ramp=0.014
.step ramp=0.016
.step ramp=0.018
.step ramp=0.02
.step ramp=0.022
.step ramp=0.024
.step ramp=0.026
.step ramp=0.028
.step ramp=0.03
.step ramp=0.032
.step ramp=0.034
.step ramp=0.036
.step ramp=0.038
.step ramp=0.04

Date: Mon Oct 15 17:12:28 2018
Total elapsed time: 0.894 seconds.

tnom = 27
temp = 27
method = modified trap
totiter = 2192
traniter = 2192
tranpoints = 1061
accept = 1057
rejected = 4
matrix size = 15
fillins = 16
solver = Normal
Matrix Compiler1: 2.16 KB object code size  0.3/0.2/[0.1]
Matrix Compiler2: 1.60 KB object code size  0.1/0.1/[0.0]

