Circuit: * C:\Users\vtolentino\Documents\test\Kicad\Projects\CameraSystem\Simulations\Draft2.asc

.OP point found by inspection.
.step cb=1e-011
.step cb=1e-010
.step cb=1e-009

Date: Mon Oct 15 14:49:52 2018
Total elapsed time: 0.103 seconds.

tnom = 27
temp = 27
method = modified trap
totiter = 2704
traniter = 2704
tranpoints = 1269
accept = 1214
rejected = 55
matrix size = 13
fillins = 0
solver = Normal
Matrix Compiler1: 772 bytes object code size  0.2/0.1/[0.0]
Matrix Compiler2: off  [0.0]/0.1/0.0

