Circuit: * C:\Users\vtolentino\Documents\test\Kicad\Projects\CameraSystem\Simulations\motor_pwm_driver_2.asc

Direct Newton iteration for .op point succeeded.

Date: Fri Oct 12 11:41:26 2018
Total elapsed time: 1.803 seconds.

tnom = 27
temp = 27
method = modified trap
totiter = 240294
traniter = 240268
tranpoints = 118521
accept = 101929
rejected = 16592
matrix size = 38
fillins = 46
solver = Normal
Matrix Compiler1: 6.20 KB object code size  0.8/0.5/[0.2]
Matrix Compiler2: 4.27 KB object code size  0.3/0.4/[0.2]

