Circuit: * C:\Users\vtolenti89\Documents\05_Electronics\Kicad\Projects\Solar_Powered_Battery\Simulation\5V0_BUCK_TestBench.asc

Per .tran options, skipping operating point for transient analysis.
Ignoring empty pin current: Ix(x2:en)


Measurement "pout" FAIL'ed
pin: AVG(-v(in)*i(v1))=1.04792 FROM 0 TO 0.001

Measurement "eff" FAIL'ed


Date: Thu Apr 11 22:50:28 2019
Total elapsed time: 0.859 seconds.

tnom = 27
temp = 27
method = modified trap
totiter = 257010
traniter = 257010
tranpoints = 63196
accept = 45740
rejected = 17456
matrix size = 17
fillins = 4
solver = Normal
Matrix Compiler1: 824 bytes object code size  0.2/0.2/[0.1]
Matrix Compiler2: 1.22 KB object code size  0.2/0.2/[0.1]

