Circuit: * C:\Users\vtolenti89\Documents\05_Electronics\Kicad\Projects\Solar_Powered_Battery\Simulation\BAT_CHARGER_TestBench.asc

Per .tran options, skipping operating point for transient analysis.
Ignoring empty pin current: Ix(x1:en)


Measurement "pout" FAIL'ed
pin: AVG(-v(in)*i(v1))=0.330393 FROM 0 TO 0.001

Measurement "eff" FAIL'ed


Date: Thu Apr 11 23:20:38 2019
Total elapsed time: 1.108 seconds.

tnom = 27
temp = 27
method = modified trap
totiter = 256544
traniter = 256544
tranpoints = 64821
accept = 46693
rejected = 18128
matrix size = 17
fillins = 4
solver = Normal
Matrix Compiler1: 824 bytes object code size  0.3/0.2/[0.0]
Matrix Compiler2: 1.22 KB object code size  0.2/0.2/[0.1]

