Circuit: * C:\Users\vtolenti89\Documents\05_Electronics\Kicad\Projects\Solar_Powered_Battery\Simulation\SolarCellTestBench.asc

.step isc=0.1
.step isc=0.2
.step isc=0.3
.step isc=0.4
.step isc=0.5
.step isc=0.6
.step isc=0.7
.step isc=0.8
.step isc=0.9
.step isc=1

Date: Wed Apr 10 19:26:56 2019
Total elapsed time: 0.655 seconds.

tnom = 27
temp = 27
method = trap
totiter = 24052
traniter = 0
tranpoints = 0
accept = 0
rejected = 0
matrix size = 3
fillins = 0
solver = Normal
Matrix Compiler1: off  [0.0]/0.1/0.0
Matrix Compiler2: off  [0.0]/0.0/0.1

