Circuit: * C:\Users\vtolenti89\Documents\05_Electronics\Kicad\Projects\Solar_Powered_Battery\Simulation\Transition_Testbench.asc

WARNING: Less than two connections to node NC_01.  This node is used by Q1.
Per .tran options, skipping operating point for transient analysis.
Heightened Def Con from 4.47942e-006 +++++++++++++++++++++++++++++++++++++++++++to 4.49742e-006
Heightened Def Con from 3.1609e-005 ++++++++++++++++++++++++++++++++++++++++++to 3.1632e-005
Heightened Def Con from 0.00267655 +++++++++++++++++++++++++++++++++++++++++++to 0.00267656
Heightened Def Con from 0.00268102 +++++++++++++++++++++++++++++++++++to 0.00268102
Heightened Def Con from 0.00407209 +++++++++++++++++++++++++++++++++++++++++++to 0.00407209
Heightened Def Con from 0.00410182 +++++++++++++++++++++++++++++++++++++++++to 0.00410183
Heightened Def Con from 0.00410492 ++++++++++++++++++++++++++++++++++++to 0.00410492
Heightened Def Con from 0.00410497 to 0.00410497
Heightened Def Con from 0.00410497 +++++++++++++++++++++++++++++to 0.00410497
Heightened Def Con from 0.00410497 +++++++++++++++++++++++++++++to 0.00410497
Heightened Def Con from 0.00410497 ++++++++++++++++++++++++++++++to 0.00410497
Heightened Def Con from 0.00410497 +++++++++++++++++++++++++++++++to 0.00410498
Heightened Def Con from 0.00410499 to 0.00410499
Heightened Def Con from 0.0055195 ++++++++++++++++++++++++++++++++++++++++++to 0.00551952

Date: Sat Apr 13 22:05:25 2019
Total elapsed time: 1.569 seconds.

tnom = 27
temp = 27
method = modified trap
totiter = 87466
traniter = 87466
tranpoints = 13368
accept = 7090
rejected = 6736
matrix size = 90
fillins = 107
solver = Normal
Thread vector: 11.8/8.0[2] 3.2/3.2[1] 1.8/2.1[1] 0.4/1.7[1]  2592/500
Matrix Compiler1: 12.06 KB object code size  2.5/1.4/[0.8]
Matrix Compiler2: 9.19 KB object code size  0.9/1.3/[0.5]

